*SPEF "ieee 1481-1999"
*DESIGN "comparator"
*DATE "09:29:48 Wednesday March 19, 2025"
*VENDOR "The OpenROAD Project"
*PROGRAM "OpenROAD"
*VERSION "v2.0-19576-gec1bf1a13"
*DESIGN_FLOW "NAME_SCOPE LOCAL" "PIN_CAP NONE"
*DIVIDER /
*DELIMITER :
*BUS_DELIMITER []
*T_UNIT 1 NS
*C_UNIT 1 PF
*R_UNIT 1 OHM
*L_UNIT 1 HENRY

*NAME_MAP
*1 A[0]
*2 A[1]
*3 A[2]
*4 A[3]
*5 A[4]
*6 A[5]
*7 A[6]
*8 A[7]
*9 net17
*10 net18
*11 net19
*12 B[0]
*13 B[1]
*14 B[2]
*15 B[3]
*16 B[4]
*17 B[5]
*18 B[6]
*19 B[7]
*20 _00_
*21 _01_
*22 _02_
*23 _03_
*24 _04_
*25 _05_
*26 _06_
*27 _07_
*28 _08_
*29 _09_
*30 _10_
*31 _11_
*32 _12_
*33 _13_
*34 _14_
*35 _15_
*36 _16_
*37 _17_
*38 _18_
*39 _19_
*40 _20_
*41 _21_
*42 _22_
*43 _23_
*44 _24_
*47 net1
*48 net2
*49 net3
*50 net4
*51 net5
*52 net6
*53 net7
*54 net8
*55 net9
*56 net10
*57 net11
*58 net12
*59 net13
*60 net14
*61 net15
*62 net16
*63 A_equal
*64 A_greater
*65 A_less
*66 _25_
*67 _26_
*68 _27_
*69 _28_
*70 _29_
*71 _30_
*72 _31_
*73 _32_
*74 _33_
*75 _34_
*76 _35_
*77 _36_
*78 _37_
*79 _38_
*80 _39_
*81 _40_
*82 _41_
*83 _42_
*84 _43_
*85 _44_
*86 _45_
*87 _46_
*88 _47_
*89 _48_
*90 _49_
*91 _50_
*92 _51_
*93 _52_
*94 TAP_TAPCELL_ROW_0_0
*95 TAP_TAPCELL_ROW_0_1
*96 TAP_TAPCELL_ROW_1_2
*97 TAP_TAPCELL_ROW_2_3
*98 TAP_TAPCELL_ROW_3_4
*99 TAP_TAPCELL_ROW_4_5
*100 TAP_TAPCELL_ROW_5_6
*101 TAP_TAPCELL_ROW_6_7
*102 TAP_TAPCELL_ROW_7_8
*103 TAP_TAPCELL_ROW_8_9
*104 TAP_TAPCELL_ROW_9_10
*105 TAP_TAPCELL_ROW_10_11
*106 TAP_TAPCELL_ROW_10_12
*107 input1
*108 input2
*109 input3
*110 input4
*111 input5
*112 input6
*113 input7
*114 input8
*115 input9
*116 input10
*117 input11
*118 input12
*119 input13
*120 input14
*121 input15
*122 input16
*123 output17
*124 output18
*125 output19
*126 FILLER_0_0
*127 FILLER_0_8
*128 FILLER_0_16
*129 FILLER_0_23
*130 FILLER_0_27
*131 FILLER_0_29
*132 FILLER_0_31
*133 FILLER_0_35
*134 FILLER_0_40
*135 FILLER_0_48
*136 FILLER_0_56
*137 FILLER_0_61
*138 FILLER_1_0
*139 FILLER_1_8
*140 FILLER_1_16
*141 FILLER_1_20
*142 FILLER_1_24
*143 FILLER_1_32
*144 FILLER_1_36
*145 FILLER_1_44
*146 FILLER_1_52
*147 FILLER_1_61
*148 FILLER_2_0
*149 FILLER_2_8
*150 FILLER_2_16
*151 FILLER_2_27
*152 FILLER_2_29
*153 FILLER_2_31
*154 FILLER_2_42
*155 FILLER_2_46
*156 FILLER_2_54
*157 FILLER_2_62
*158 FILLER_2_66
*159 FILLER_2_68
*160 FILLER_3_0
*161 FILLER_3_8
*162 FILLER_3_16
*163 FILLER_3_18
*164 FILLER_3_27
*165 FILLER_3_31
*166 FILLER_3_40
*167 FILLER_3_44
*168 FILLER_3_57
*169 FILLER_3_59
*170 FILLER_3_61
*171 FILLER_3_65
*172 FILLER_4_6
*173 FILLER_4_22
*174 FILLER_4_31
*175 FILLER_4_33
*176 FILLER_4_39
*177 FILLER_4_47
*178 FILLER_4_51
*179 FILLER_4_56
*180 FILLER_4_64
*181 FILLER_4_68
*182 FILLER_5_0
*183 FILLER_5_8
*184 FILLER_5_16
*185 FILLER_5_24
*186 FILLER_5_32
*187 FILLER_5_36
*188 FILLER_5_55
*189 FILLER_5_61
*190 FILLER_5_65
*191 FILLER_6_3
*192 FILLER_6_10
*193 FILLER_6_26
*194 FILLER_6_43
*195 FILLER_6_47
*196 FILLER_6_61
*197 FILLER_7_0
*198 FILLER_7_8
*199 FILLER_7_16
*200 FILLER_7_31
*201 FILLER_7_40
*202 FILLER_7_44
*203 FILLER_7_46
*204 FILLER_7_55
*205 FILLER_7_61
*206 FILLER_8_0
*207 FILLER_8_8
*208 FILLER_8_16
*209 FILLER_8_24
*210 FILLER_8_28
*211 FILLER_8_31
*212 FILLER_8_42
*213 FILLER_8_50
*214 FILLER_8_58
*215 FILLER_8_66
*216 FILLER_8_68
*217 FILLER_9_0
*218 FILLER_9_8
*219 FILLER_9_16
*220 FILLER_9_20
*221 FILLER_9_25
*222 FILLER_9_33
*223 FILLER_9_37
*224 FILLER_9_45
*225 FILLER_9_53
*226 FILLER_9_57
*227 FILLER_9_59
*228 FILLER_9_61
*229 FILLER_10_0
*230 FILLER_10_8
*231 FILLER_10_16
*232 FILLER_10_20
*233 FILLER_10_22
*234 FILLER_10_26
*235 FILLER_10_31
*236 FILLER_10_35
*237 FILLER_10_39
*238 FILLER_10_47
*239 FILLER_10_55
*240 FILLER_10_59
*241 FILLER_10_61

*PORTS
A[0] I
A[1] I
A[2] I
A[3] I
A[4] I
A[5] I
A[6] I
A[7] I
A_equal O
A_greater O
A_less O
B[0] I
B[1] I
B[2] I
B[3] I
B[4] I
B[5] I
B[6] I
B[7] I

*D_NET *1 0.000543083
*CONN
*P A[0] I
*I *107:A I *D sky130_fd_sc_hd__buf_1
*CAP
1 A[0] 0.000238523
2 *107:A 0.000238523
3 *107:A *115:A 6.60375e-05
4 *107:A *119:A 0
*RES
1 A[0] *107:A 18.6634 
*END

*D_NET *2 0.000412242
*CONN
*P A[1] I
*I *108:A I *D sky130_fd_sc_hd__buf_1
*CAP
1 A[1] 0.000163858
2 *108:A 0.000163858
3 *108:A *116:A 8.45271e-05
*RES
1 A[1] *108:A 18.227 
*END

*D_NET *3 0.000351373
*CONN
*P A[2] I
*I *109:A I *D sky130_fd_sc_hd__buf_1
*CAP
1 A[2] 0.000131694
2 *109:A 0.000131694
3 *109:A *117:A 8.79855e-05
*RES
1 A[2] *109:A 17.6724 
*END

*D_NET *4 0.00090539
*CONN
*P A[3] I
*I *110:A I *D sky130_fd_sc_hd__buf_1
*CAP
1 A[3] 0.00034764
2 *110:A 0.00034764
3 *110:A A_greater 2.90287e-05
4 *110:A *118:A 6.3706e-05
5 *110:A *50:12 0.000117376
*RES
1 A[3] *110:A 24.9492 
*END

*D_NET *5 0.000405811
*CONN
*P A[4] I
*I *111:A I *D sky130_fd_sc_hd__buf_1
*CAP
1 A[4] 0.000149365
2 *111:A 0.000149365
3 *111:A *115:A 2.77528e-05
4 *111:A *119:A 7.93279e-05
*RES
1 A[4] *111:A 19.789 
*END

*D_NET *6 0.000460781
*CONN
*P A[5] I
*I *112:A I *D sky130_fd_sc_hd__buf_1
*CAP
1 A[5] 0.000167888
2 *112:A 0.000167888
3 *112:A *120:A 0.000122592
4 *112:A *52:12 2.41274e-06
*RES
1 A[5] *112:A 18.9182 
*END

*D_NET *7 0.000380751
*CONN
*P A[6] I
*I *113:A I *D sky130_fd_sc_hd__buf_1
*CAP
1 A[6] 0.000127343
2 *113:A 0.000127343
3 *113:A *121:A 0.000126065
*RES
1 A[6] *113:A 18.1948 
*END

*D_NET *8 0.00117706
*CONN
*P A[7] I
*I *114:A I *D sky130_fd_sc_hd__buf_1
*CAP
1 A[7] 0.000482561
2 *114:A 0.000482561
3 *114:A A_equal 6.78741e-05
4 *114:A *70:D 3.24877e-05
5 *114:A *122:A 9.24378e-05
6 *114:A *54:10 1.91391e-05
*RES
1 A[7] *114:A 19.6141 
*END

*D_NET *9 0.00175429
*CONN
*I *123:A I *D sky130_fd_sc_hd__buf_1
*I *76:Y O *D sky130_fd_sc_hd__nor2_1
*CAP
1 *123:A 0.000183706
2 *76:Y 0.000183706
3 *123:A *76:B 2.15184e-05
4 *123:A *77:A 8.52766e-05
5 *123:A *92:A1 2.48804e-05
6 *123:A *92:B1 8.65962e-05
7 *123:A *93:A2 0.000135703
8 *123:A *93:A3 7.6719e-06
9 *123:A *124:A 0.00029156
10 *123:A *125:A 0.000429625
11 *123:A *30:12 0.000304042
*RES
1 *76:Y *123:A 30.3861 
*END

*D_NET *10 0.000812265
*CONN
*I *124:A I *D sky130_fd_sc_hd__buf_1
*I *92:Y O *D sky130_fd_sc_hd__a21oi_1
*CAP
1 *124:A 0.000202095
2 *92:Y 0.000202095
3 *124:A *92:A1 3.67474e-05
4 *124:A *93:A3 1.41291e-05
5 *124:A *125:A 6.56396e-05
6 *123:A *124:A 0.00029156
*RES
1 *92:Y *124:A 26.0698 
*END

*D_NET *11 0.00219378
*CONN
*I *125:A I *D sky130_fd_sc_hd__buf_1
*I *93:X O *D sky130_fd_sc_hd__a31o_1
*CAP
1 *125:A 0.000625501
2 *93:X 0.000625501
3 *125:A A_equal 0.000218918
4 *125:A *30:12 0.000228593
5 *123:A *125:A 0.000429625
6 *124:A *125:A 6.56396e-05
*RES
1 *93:X *125:A 32.6045 
*END

*D_NET *12 0.00028143
*CONN
*P B[0] I
*I *115:A I *D sky130_fd_sc_hd__buf_1
*CAP
1 B[0] 9.38197e-05
2 *115:A 9.38197e-05
3 *107:A *115:A 6.60375e-05
4 *111:A *115:A 2.77528e-05
*RES
1 B[0] *115:A 18.5432 
*END

*D_NET *13 0.000602379
*CONN
*P B[1] I
*I *116:A I *D sky130_fd_sc_hd__buf_1
*CAP
1 B[1] 0.000249711
2 *116:A 0.000249711
3 *116:A *82:A 1.84293e-05
4 *116:A *48:10 0
5 *108:A *116:A 8.45271e-05
*RES
1 B[1] *116:A 20.5792 
*END

*D_NET *14 0.000601519
*CONN
*P B[2] I
*I *117:A I *D sky130_fd_sc_hd__buf_1
*CAP
1 B[2] 0.000223195
2 *117:A 0.000223195
3 *117:A *48:10 3.12973e-05
4 *117:A *49:10 3.58457e-05
5 *109:A *117:A 8.79855e-05
*RES
1 B[2] *117:A 20.5792 
*END

*D_NET *15 0.000790485
*CONN
*P B[3] I
*I *118:A I *D sky130_fd_sc_hd__buf_1
*CAP
1 B[3] 0.000363389
2 *118:A 0.000363389
3 *118:A A_greater 0
4 *110:A *118:A 6.3706e-05
*RES
1 B[3] *118:A 18.4776 
*END

*D_NET *16 0.000401573
*CONN
*P B[4] I
*I *119:A I *D sky130_fd_sc_hd__buf_1
*CAP
1 B[4] 0.000161122
2 *119:A 0.000161122
3 *107:A *119:A 0
4 *111:A *119:A 7.93279e-05
*RES
1 B[4] *119:A 18.3574 
*END

*D_NET *17 0.000846766
*CONN
*P B[5] I
*I *120:A I *D sky130_fd_sc_hd__buf_1
*CAP
1 B[5] 0.00030688
2 *120:A 0.00030688
3 *120:A *52:12 6.46135e-05
4 *120:A *60:10 4.58003e-05
5 *112:A *120:A 0.000122592
*RES
1 B[5] *120:A 23.2101 
*END

*D_NET *18 0.000803511
*CONN
*P B[6] I
*I *121:A I *D sky130_fd_sc_hd__buf_1
*CAP
1 B[6] 0.00032544
2 *121:A 0.00032544
3 *121:A *53:10 0
4 *121:A *61:10 2.65667e-05
5 *113:A *121:A 0.000126065
*RES
1 B[6] *121:A 23.2101 
*END

*D_NET *19 0.000263691
*CONN
*P B[7] I
*I *122:A I *D sky130_fd_sc_hd__buf_1
*CAP
1 B[7] 8.56263e-05
2 *122:A 8.56263e-05
3 *114:A *122:A 9.24378e-05
*RES
1 B[7] *122:A 17.7892 
*END

*D_NET *20 0.00143401
*CONN
*I *70:A I *D sky130_fd_sc_hd__nand4_1
*I *66:Y O *D sky130_fd_sc_hd__xnor2_1
*CAP
1 *70:A 0.000513222
2 *66:Y 0.000513222
3 *70:A *70:C 1.62206e-05
4 *70:A *70:D 0.000103943
5 *70:A *88:A 0.000175485
6 *70:A *89:C 4.26431e-05
7 *70:A *24:12 6.92705e-05
*RES
1 *66:Y *70:A 31.4471 
*END

*D_NET *21 0.000634794
*CONN
*I *70:B I *D sky130_fd_sc_hd__nand4_1
*I *67:Y O *D sky130_fd_sc_hd__xnor2_1
*CAP
1 *70:B 0.000217373
2 *67:Y 0.000217373
3 *70:B *90:B 0.000200047
*RES
1 *67:Y *70:B 32.9604 
*END

*D_NET *22 0.00112192
*CONN
*I *70:C I *D sky130_fd_sc_hd__nand4_1
*I *68:Y O *D sky130_fd_sc_hd__xnor2_1
*CAP
1 *70:C 0.000509674
2 *68:Y 0.000509674
3 *70:C *70:D 3.14978e-05
4 *70:C *89:B 0
5 *70:C *89:C 0
6 *70:C *90:A 3.89004e-05
7 *70:C *90:B 1.59525e-05
8 *70:A *70:C 1.62206e-05
*RES
1 *68:Y *70:C 37.9813 
*END

*D_NET *23 0.00155845
*CONN
*I *70:D I *D sky130_fd_sc_hd__nand4_1
*I *69:Y O *D sky130_fd_sc_hd__xnor2_1
*CAP
1 *70:D 0.000595421
2 *69:Y 0.000595421
3 *70:D *69:A 3.34802e-05
4 *70:D *69:B 6.7041e-05
5 *70:D *24:12 2.82583e-05
6 *70:D *44:12 5.19205e-05
7 *70:D *54:10 1.89839e-05
8 *70:A *70:D 0.000103943
9 *70:C *70:D 3.14978e-05
10 *114:A *70:D 3.24877e-05
*RES
1 *69:Y *70:D 43.388 
*END

*D_NET *24 0.00074953
*CONN
*I *77:A I *D sky130_fd_sc_hd__inv_1
*I *76:A I *D sky130_fd_sc_hd__nor2_1
*I *70:Y O *D sky130_fd_sc_hd__nand4_1
*CAP
1 *77:A 1.05082e-05
2 *76:A 0
3 *70:Y 0.000230216
4 *24:12 0.000240724
5 *77:A *76:B 6.50727e-05
6 *77:A *93:A2 2.02039e-05
7 *24:12 *30:12 0
8 *24:12 *44:12 0
9 *70:A *24:12 6.92705e-05
10 *70:D *24:12 2.82583e-05
11 *123:A *77:A 8.52766e-05
*RES
1 *70:Y *24:12 22.7442 
2 *24:12 *76:A 9.24915 
3 *24:12 *77:A 10.1835 
*END

*D_NET *25 0.000585245
*CONN
*I *75:A I *D sky130_fd_sc_hd__nand4_1
*I *71:Y O *D sky130_fd_sc_hd__xnor2_1
*CAP
1 *75:A 0.000292623
2 *71:Y 0.000292623
3 *75:A *73:A 0
4 *75:A *74:A 0
5 *75:A *83:A 0
6 *75:A *84:B 0
*RES
1 *71:Y *75:A 33.791 
*END

*D_NET *26 0.00163994
*CONN
*I *75:B I *D sky130_fd_sc_hd__nand4_1
*I *72:Y O *D sky130_fd_sc_hd__xnor2_1
*CAP
1 *75:B 0.000745116
2 *72:Y 0.000745116
3 *75:B *75:C 6.92705e-05
4 *75:B *75:D 3.14978e-05
5 *75:B *81:A_N 3.14978e-05
6 *75:B *81:B 1.74409e-05
*RES
1 *72:Y *75:B 29.7592 
*END

*D_NET *27 0.00101523
*CONN
*I *75:C I *D sky130_fd_sc_hd__nand4_1
*I *73:Y O *D sky130_fd_sc_hd__xnor2_1
*CAP
1 *75:C 0.000346793
2 *73:Y 0.000346793
3 *75:C *73:A 6.92705e-05
4 *75:C *73:B 0.000171273
5 *75:C *84:B 7.02172e-06
6 *75:C *50:12 4.80635e-06
7 *75:B *75:C 6.92705e-05
*RES
1 *73:Y *75:C 27.5649 
*END

*D_NET *28 0.00013711
*CONN
*I *75:D I *D sky130_fd_sc_hd__nand4_1
*I *74:Y O *D sky130_fd_sc_hd__xnor2_1
*CAP
1 *75:D 5.28061e-05
2 *74:Y 5.28061e-05
3 *75:B *75:D 3.14978e-05
*RES
1 *74:Y *75:D 20.2103 
*END

*D_NET *29 0.000900008
*CONN
*I *93:A2 I *D sky130_fd_sc_hd__a31o_1
*I *76:B I *D sky130_fd_sc_hd__nor2_1
*I *75:Y O *D sky130_fd_sc_hd__nand4_1
*CAP
1 *93:A2 0.000103907
2 *76:B 8.77974e-05
3 *75:Y 8.57338e-05
4 *29:12 0.000277439
5 *93:A2 *92:A1 3.75603e-05
6 *93:A2 *93:A3 6.50727e-05
7 *29:12 *93:A3 0
8 *77:A *76:B 6.50727e-05
9 *77:A *93:A2 2.02039e-05
10 *123:A *76:B 2.15184e-05
11 *123:A *93:A2 0.000135703
*RES
1 *75:Y *29:12 20.2446 
2 *29:12 *76:B 11.6605 
3 *29:12 *93:A2 13.3243 
*END

*D_NET *30 0.00132331
*CONN
*I *92:A1 I *D sky130_fd_sc_hd__a21oi_1
*I *93:A1 I *D sky130_fd_sc_hd__a31o_1
*I *77:Y O *D sky130_fd_sc_hd__inv_1
*CAP
1 *92:A1 4.29147e-05
2 *93:A1 0
3 *77:Y 7.60921e-05
4 *30:12 0.000119007
5 *92:A1 *92:B1 0.000112408
6 *92:A1 *93:A3 0.0002817
7 *30:12 *93:A3 5.22654e-06
8 *30:12 *44:12 5.41377e-05
9 *93:A2 *92:A1 3.75603e-05
10 *123:A *92:A1 2.48804e-05
11 *123:A *30:12 0.000304042
12 *124:A *92:A1 3.67474e-05
13 *125:A *30:12 0.000228593
14 *24:12 *30:12 0
*RES
1 *77:Y *30:12 22.4697 
2 *30:12 *93:A1 9.24915 
3 *30:12 *92:A1 12.7697 
*END

*D_NET *31 0.000816796
*CONN
*I *84:B I *D sky130_fd_sc_hd__maj3_1
*I *78:Y O *D sky130_fd_sc_hd__inv_1
*CAP
1 *84:B 0.000313144
2 *78:Y 0.000313144
3 *84:B *73:A 0.000105433
4 *84:B *73:B 6.49183e-05
5 *84:B *37:8 0
6 *84:B *50:12 1.31344e-05
7 *75:A *84:B 0
8 *75:C *84:B 7.02172e-06
*RES
1 *78:Y *84:B 33.5193 
*END

*D_NET *32 0.0004014
*CONN
*I *83:B I *D sky130_fd_sc_hd__maj3_1
*I *79:Y O *D sky130_fd_sc_hd__inv_1
*CAP
1 *83:B 0.000142376
2 *79:Y 0.000142376
3 *83:B *74:B 1.39717e-06
4 *83:B *79:A 3.86408e-05
5 *83:B *83:A 5.04734e-05
6 *83:B *48:10 2.61377e-05
*RES
1 *79:Y *83:B 30.7462 
*END

*D_NET *33 0.000421145
*CONN
*I *82:B I *D sky130_fd_sc_hd__maj3_1
*I *80:Y O *D sky130_fd_sc_hd__inv_1
*CAP
1 *82:B 8.44163e-05
2 *80:Y 8.44163e-05
3 *82:B *74:A 0.000152977
4 *82:B *80:A 6.36709e-05
5 *82:B *83:C 3.56651e-05
*RES
1 *80:Y *82:B 22.272 
*END

*D_NET *34 0.000271068
*CONN
*I *82:C I *D sky130_fd_sc_hd__maj3_1
*I *81:Y O *D sky130_fd_sc_hd__nand2b_1
*CAP
1 *82:C 0.000135534
2 *81:Y 0.000135534
3 *82:C *74:B 0
4 *82:C *82:A 0
*RES
1 *81:Y *82:C 30.576 
*END

*D_NET *35 0.000733167
*CONN
*I *83:C I *D sky130_fd_sc_hd__maj3_1
*I *82:X O *D sky130_fd_sc_hd__maj3_1
*CAP
1 *83:C 0.000203747
2 *82:X 0.000203747
3 *83:C *74:A 2.77625e-06
4 *83:C *80:A 0.000188221
5 *83:C *83:A 9.90116e-05
6 *82:B *83:C 3.56651e-05
*RES
1 *82:X *83:C 24.2131 
*END

*D_NET *36 0.000720935
*CONN
*I *84:C I *D sky130_fd_sc_hd__maj3_1
*I *83:X O *D sky130_fd_sc_hd__maj3_1
*CAP
1 *84:C 0.000335047
2 *83:X 0.000335047
3 *84:C *84:A 1.43848e-05
4 *84:C *58:6 3.6455e-05
*RES
1 *83:X *84:C 25.8769 
*END

*D_NET *37 0.00153306
*CONN
*I *93:A3 I *D sky130_fd_sc_hd__a31o_1
*I *92:A2 I *D sky130_fd_sc_hd__a21oi_1
*I *84:X O *D sky130_fd_sc_hd__maj3_1
*CAP
1 *93:A3 0.000302746
2 *92:A2 4.19445e-05
3 *84:X 0.00023494
4 *37:8 0.00057963
5 *37:8 A_greater 0
6 *37:8 *73:A 0
7 *84:B *37:8 0
8 *92:A1 *93:A3 0.0002817
9 *93:A2 *93:A3 6.50727e-05
10 *123:A *93:A3 7.6719e-06
11 *124:A *93:A3 1.41291e-05
12 *29:12 *93:A3 0
13 *30:12 *93:A3 5.22654e-06
*RES
1 *84:X *37:8 18.4879 
2 *37:8 *92:A2 14.7506 
3 *37:8 *93:A3 28.3563 
*END

*D_NET *38 0.00060828
*CONN
*I *91:B I *D sky130_fd_sc_hd__maj3_1
*I *85:Y O *D sky130_fd_sc_hd__inv_1
*CAP
1 *91:B 6.73228e-05
2 *85:Y 6.73228e-05
3 *91:B *85:A 3.21692e-05
4 *91:B *91:A 1.61631e-05
5 *91:B *91:C 5.0715e-05
6 *91:B *44:12 2.61147e-05
7 *91:B *62:6 0.000348473
*RES
1 *85:Y *91:B 22.272 
*END

*D_NET *39 0.000838398
*CONN
*I *90:B I *D sky130_fd_sc_hd__maj3_1
*I *86:Y O *D sky130_fd_sc_hd__inv_1
*CAP
1 *90:B 0.000143057
2 *86:Y 0.000143057
3 *90:B *67:B 0.000228593
4 *90:B *86:A 6.57335e-06
5 *90:B *90:A 0.000101118
6 *70:B *90:B 0.000200047
7 *70:C *90:B 1.59525e-05
*RES
1 *86:Y *90:B 33.3799 
*END

*D_NET *40 0.000537437
*CONN
*I *89:B I *D sky130_fd_sc_hd__maj3_1
*I *87:Y O *D sky130_fd_sc_hd__inv_1
*CAP
1 *89:B 0.000222613
2 *87:Y 0.000222613
3 *89:B *68:A 1.19856e-05
4 *89:B *87:A 5.02185e-05
5 *89:B *89:A 3.00073e-05
6 *70:C *89:B 0
*RES
1 *87:Y *89:B 31.8554 
*END

*D_NET *41 0.000381644
*CONN
*I *89:C I *D sky130_fd_sc_hd__maj3_1
*I *88:Y O *D sky130_fd_sc_hd__nor2b_1
*CAP
1 *89:C 0.0001695
2 *88:Y 0.0001695
3 *70:A *89:C 4.26431e-05
4 *70:C *89:C 0
*RES
1 *88:Y *89:C 31.5781 
*END

*D_NET *42 0.000623706
*CONN
*I *90:C I *D sky130_fd_sc_hd__maj3_1
*I *89:X O *D sky130_fd_sc_hd__maj3_1
*CAP
1 *90:C 0.00030726
2 *89:X 0.00030726
3 *90:C *90:A 9.18559e-06
*RES
1 *89:X *90:C 24.7677 
*END

*D_NET *43 0.000706324
*CONN
*I *91:C I *D sky130_fd_sc_hd__maj3_1
*I *90:X O *D sky130_fd_sc_hd__maj3_1
*CAP
1 *91:C 0.000254592
2 *90:X 0.000254592
3 *91:C *91:A 2.82583e-05
4 *91:C *44:12 0.000118166
5 *91:B *91:C 5.0715e-05
*RES
1 *90:X *91:C 25.3223 
*END

*D_NET *44 0.00123588
*CONN
*I *92:B1 I *D sky130_fd_sc_hd__a21oi_1
*I *93:B1 I *D sky130_fd_sc_hd__a31o_1
*I *91:X O *D sky130_fd_sc_hd__maj3_1
*CAP
1 *92:B1 1.30502e-05
2 *93:B1 0
3 *91:X 0.00038022
4 *44:12 0.00039327
5 *70:D *44:12 5.19205e-05
6 *91:B *44:12 2.61147e-05
7 *91:C *44:12 0.000118166
8 *92:A1 *92:B1 0.000112408
9 *123:A *92:B1 8.65962e-05
10 *24:12 *44:12 0
11 *30:12 *44:12 5.41377e-05
*RES
1 *91:X *44:12 26.6209 
2 *44:12 *93:B1 9.24915 
3 *44:12 *92:B1 10.4669 
*END

*D_NET *47 0.000942239
*CONN
*I *81:B I *D sky130_fd_sc_hd__nand2b_1
*I *72:B I *D sky130_fd_sc_hd__xnor2_1
*I *107:X O *D sky130_fd_sc_hd__buf_1
*CAP
1 *81:B 0.000123671
2 *72:B 0
3 *107:X 0.000113359
4 *47:8 0.00023703
5 *81:B *81:A_N 0.0002817
6 *81:B *55:10 1.67988e-05
7 *47:8 *55:10 0.000152239
8 *75:B *81:B 1.74409e-05
*RES
1 *107:X *47:8 13.3243 
2 *47:8 *72:B 9.24915 
3 *47:8 *81:B 14.0537 
*END

*D_NET *48 0.00207028
*CONN
*I *80:A I *D sky130_fd_sc_hd__inv_1
*I *74:B I *D sky130_fd_sc_hd__xnor2_1
*I *108:X O *D sky130_fd_sc_hd__buf_1
*CAP
1 *80:A 3.35992e-05
2 *74:B 0.000125521
3 *108:X 0.000646525
4 *48:10 0.000805646
5 *74:B *74:A 0.000117741
6 *80:A *74:A 3.05212e-05
7 *82:B *80:A 6.36709e-05
8 *82:C *74:B 0
9 *83:B *74:B 1.39717e-06
10 *83:B *48:10 2.61377e-05
11 *83:C *80:A 0.000188221
12 *116:A *48:10 0
13 *117:A *48:10 3.12973e-05
*RES
1 *108:X *48:10 26.6914 
2 *48:10 *74:B 17.2421 
3 *48:10 *80:A 15.8289 
*END

*D_NET *49 0.000875912
*CONN
*I *71:B I *D sky130_fd_sc_hd__xnor2_1
*I *79:A I *D sky130_fd_sc_hd__inv_1
*I *109:X O *D sky130_fd_sc_hd__buf_1
*CAP
1 *71:B 0
2 *79:A 0.00015021
3 *109:X 0.000188712
4 *49:10 0.000338922
5 *49:10 *57:10 0.000123582
6 *83:B *79:A 3.86408e-05
7 *117:A *49:10 3.58457e-05
*RES
1 *109:X *49:10 23.8184 
2 *49:10 *79:A 13.0892 
3 *49:10 *71:B 9.24915 
*END

*D_NET *50 0.000783326
*CONN
*I *78:A I *D sky130_fd_sc_hd__inv_1
*I *73:B I *D sky130_fd_sc_hd__xnor2_1
*I *110:X O *D sky130_fd_sc_hd__buf_1
*CAP
1 *78:A 0
2 *73:B 8.28256e-05
3 *110:X 0.000123083
4 *50:12 0.000205909
5 *75:C *73:B 0.000171273
6 *75:C *50:12 4.80635e-06
7 *84:B *73:B 6.49183e-05
8 *84:B *50:12 1.31344e-05
9 *110:A *50:12 0.000117376
*RES
1 *110:X *50:12 13.1133 
2 *50:12 *73:B 12.619 
3 *50:12 *78:A 9.24915 
*END

*D_NET *51 0.00126687
*CONN
*I *88:A I *D sky130_fd_sc_hd__nor2b_1
*I *66:B I *D sky130_fd_sc_hd__xnor2_1
*I *111:X O *D sky130_fd_sc_hd__buf_1
*CAP
1 *88:A 9.01258e-05
2 *66:B 0.00026399
3 *111:X 0.000173864
4 *66:B *59:8 0.000334808
5 *88:A *88:B_N 0.000228593
6 *88:A *59:8 0
7 *70:A *88:A 0.000175485
*RES
1 *111:X *66:B 24.2372 
2 *66:B *88:A 22.5734 
*END

*D_NET *52 0.00103197
*CONN
*I *68:B I *D sky130_fd_sc_hd__xnor2_1
*I *87:A I *D sky130_fd_sc_hd__inv_1
*I *112:X O *D sky130_fd_sc_hd__buf_1
*CAP
1 *68:B 0
2 *87:A 8.51758e-05
3 *112:X 0.000265183
4 *52:12 0.000350359
5 *87:A *68:A 6.08467e-05
6 *52:12 *89:A 2.95757e-05
7 *52:12 *60:10 0.000123582
8 *89:B *87:A 5.02185e-05
9 *112:A *52:12 2.41274e-06
10 *120:A *52:12 6.46135e-05
*RES
1 *112:X *52:12 24.9571 
2 *52:12 *87:A 11.98 
3 *52:12 *68:B 9.24915 
*END

*D_NET *53 0.000997697
*CONN
*I *86:A I *D sky130_fd_sc_hd__inv_1
*I *67:B I *D sky130_fd_sc_hd__xnor2_1
*I *113:X O *D sky130_fd_sc_hd__buf_1
*CAP
1 *86:A 1.52739e-05
2 *67:B 0.000127948
3 *113:X 0.000238044
4 *53:10 0.000381265
5 *53:10 *90:A 0
6 *53:10 *61:10 0
7 *90:B *67:B 0.000228593
8 *90:B *86:A 6.57335e-06
9 *121:A *53:10 0
*RES
1 *113:X *53:10 23.8184 
2 *53:10 *67:B 13.3243 
3 *53:10 *86:A 9.62893 
*END

*D_NET *54 0.000927791
*CONN
*I *85:A I *D sky130_fd_sc_hd__inv_1
*I *69:B I *D sky130_fd_sc_hd__xnor2_1
*I *114:X O *D sky130_fd_sc_hd__buf_1
*CAP
1 *85:A 1.4736e-05
2 *69:B 0.000231285
3 *114:X 0.000149207
4 *54:10 0.000395229
5 *69:B *69:A 0
6 *70:D *69:B 6.7041e-05
7 *70:D *54:10 1.89839e-05
8 *91:B *85:A 3.21692e-05
9 *114:A *54:10 1.91391e-05
*RES
1 *114:X *54:10 16.7198 
2 *54:10 *69:B 19.6294 
3 *54:10 *85:A 14.1289 
*END

*D_NET *55 0.0012767
*CONN
*I *81:A_N I *D sky130_fd_sc_hd__nand2b_1
*I *72:A I *D sky130_fd_sc_hd__xnor2_1
*I *115:X O *D sky130_fd_sc_hd__buf_1
*CAP
1 *81:A_N 5.61497e-05
2 *72:A 0
3 *115:X 0.000341084
4 *55:10 0.000397234
5 *75:B *81:A_N 3.14978e-05
6 *81:B *81:A_N 0.0002817
7 *81:B *55:10 1.67988e-05
8 *47:8 *55:10 0.000152239
*RES
1 *115:X *55:10 18.3398 
2 *55:10 *72:A 9.24915 
3 *55:10 *81:A_N 12.191 
*END

*D_NET *56 0.00205785
*CONN
*I *74:A I *D sky130_fd_sc_hd__xnor2_1
*I *82:A I *D sky130_fd_sc_hd__maj3_1
*I *116:X O *D sky130_fd_sc_hd__buf_1
*CAP
1 *74:A 0.00051376
2 *82:A 0.000865179
3 *116:X 0.000351418
4 *74:A *83:A 5.04829e-06
5 *74:B *74:A 0.000117741
6 *75:A *74:A 0
7 *80:A *74:A 3.05212e-05
8 *82:B *74:A 0.000152977
9 *82:C *82:A 0
10 *83:C *74:A 2.77625e-06
11 *116:A *82:A 1.84293e-05
*RES
1 *116:X *82:A 34.9002 
2 *82:A *74:A 36.9848 
*END

*D_NET *57 0.000952726
*CONN
*I *71:A I *D sky130_fd_sc_hd__xnor2_1
*I *83:A I *D sky130_fd_sc_hd__maj3_1
*I *117:X O *D sky130_fd_sc_hd__buf_1
*CAP
1 *71:A 0
2 *83:A 0.000200751
3 *117:X 0.000136555
4 *57:10 0.000337306
5 *74:A *83:A 5.04829e-06
6 *75:A *83:A 0
7 *83:B *83:A 5.04734e-05
8 *83:C *83:A 9.90116e-05
9 *49:10 *57:10 0.000123582
*RES
1 *117:X *57:10 17.135 
2 *57:10 *83:A 19.6294 
3 *57:10 *71:A 13.7491 
*END

*D_NET *58 0.00104821
*CONN
*I *73:A I *D sky130_fd_sc_hd__xnor2_1
*I *84:A I *D sky130_fd_sc_hd__maj3_1
*I *118:X O *D sky130_fd_sc_hd__buf_1
*CAP
1 *73:A 0.000122321
2 *84:A 3.25609e-05
3 *118:X 0.000256449
4 *58:6 0.000411331
5 *75:A *73:A 0
6 *75:C *73:A 6.92705e-05
7 *84:B *73:A 0.000105433
8 *84:C *84:A 1.43848e-05
9 *84:C *58:6 3.6455e-05
10 *37:8 *73:A 0
*RES
1 *118:X *58:6 14.964 
2 *58:6 *84:A 9.97254 
3 *58:6 *73:A 22.0503 
*END

*D_NET *59 0.00103986
*CONN
*I *88:B_N I *D sky130_fd_sc_hd__nor2b_1
*I *66:A I *D sky130_fd_sc_hd__xnor2_1
*I *119:X O *D sky130_fd_sc_hd__buf_1
*CAP
1 *88:B_N 7.89653e-05
2 *66:A 0
3 *119:X 0.000159267
4 *59:8 0.000238232
5 *66:B *59:8 0.000334808
6 *88:A *88:B_N 0.000228593
7 *88:A *59:8 0
*RES
1 *119:X *59:8 14.2888 
2 *59:8 *66:A 9.24915 
3 *59:8 *88:B_N 12.191 
*END

*D_NET *60 0.0010249
*CONN
*I *89:A I *D sky130_fd_sc_hd__maj3_1
*I *68:A I *D sky130_fd_sc_hd__xnor2_1
*I *120:X O *D sky130_fd_sc_hd__buf_1
*CAP
1 *89:A 0.000114902
2 *68:A 4.96942e-05
3 *120:X 0.000196957
4 *60:10 0.000361553
5 *87:A *68:A 6.08467e-05
6 *89:B *68:A 1.19856e-05
7 *89:B *89:A 3.00073e-05
8 *120:A *60:10 4.58003e-05
9 *52:12 *89:A 2.95757e-05
10 *52:12 *60:10 0.000123582
*RES
1 *120:X *60:10 17.829 
2 *60:10 *68:A 15.0271 
3 *60:10 *89:A 16.4116 
*END

*D_NET *61 0.000727429
*CONN
*I *90:A I *D sky130_fd_sc_hd__maj3_1
*I *67:A I *D sky130_fd_sc_hd__xnor2_1
*I *121:X O *D sky130_fd_sc_hd__buf_1
*CAP
1 *90:A 0.000133143
2 *67:A 0
3 *121:X 0.000142686
4 *61:10 0.000275829
5 *70:C *90:A 3.89004e-05
6 *90:B *90:A 0.000101118
7 *90:C *90:A 9.18559e-06
8 *121:A *61:10 2.65667e-05
9 *53:10 *90:A 0
10 *53:10 *61:10 0
*RES
1 *121:X *61:10 16.7198 
2 *61:10 *67:A 13.7491 
3 *61:10 *90:A 17.135 
*END

*D_NET *62 0.00165481
*CONN
*I *69:A I *D sky130_fd_sc_hd__xnor2_1
*I *91:A I *D sky130_fd_sc_hd__maj3_1
*I *122:X O *D sky130_fd_sc_hd__buf_1
*CAP
1 *69:A 0.000122201
2 *91:A 4.64513e-05
3 *122:X 0.000445567
4 *62:6 0.00061422
5 *69:B *69:A 0
6 *70:D *69:A 3.34802e-05
7 *91:B *91:A 1.61631e-05
8 *91:B *62:6 0.000348473
9 *91:C *91:A 2.82583e-05
*RES
1 *122:X *62:6 19.9554 
2 *62:6 *91:A 10.5271 
3 *62:6 *69:A 21.4904 
*END

*D_NET *63 0.000943386
*CONN
*P A_equal O
*I *123:X O *D sky130_fd_sc_hd__buf_1
*CAP
1 A_equal 0.000286709
2 *123:X 0.000286709
3 A_equal A_greater 3.88454e-05
4 A_equal A_less 4.43305e-05
5 *114:A A_equal 6.78741e-05
6 *125:A A_equal 0.000218918
*RES
1 *123:X A_equal 20.4059 
*END

*D_NET *64 0.000477254
*CONN
*P A_greater O
*I *124:X O *D sky130_fd_sc_hd__buf_1
*CAP
1 A_greater 0.000181237
2 *124:X 0.000181237
3 A_greater A_less 4.69062e-05
4 A_equal A_greater 3.88454e-05
5 *110:A A_greater 2.90287e-05
6 *118:A A_greater 0
7 *37:8 A_greater 0
*RES
1 *124:X A_greater 18.7727 
*END

*D_NET *65 0.000182546
*CONN
*P A_less O
*I *125:X O *D sky130_fd_sc_hd__buf_1
*CAP
1 A_less 4.56548e-05
2 *125:X 4.56548e-05
3 A_equal A_less 4.43305e-05
4 A_greater A_less 4.69062e-05
*RES
1 *125:X A_less 18.0515 
*END
